*Heading
** Job name: Dam_plane Model name: Model-1
** Generated by: Abaqus/CAE 2023
*Preprint, echo=NO, model=NO, history=NO, contact=NO
**
** PARTS
**
*Part, name=Part-1
*Node
      1,   5.05000019,   31.1499996
      2,   5.05000019,   33.6499977
      3,   7.05000019,   33.6499977
      4,   7.05000019,   31.1499996
      5,   5.05000019,   11.1499987
      6,   5.05000019,   13.6499987
      7,   7.05000019,   13.6499987
      8,   7.05000019,   11.1499987
      9,   12.6000004,           0.
     10,   12.6000004,         32.5
     11,   12.6000004,          47.
     12,           0.,          47.
     13,           0.,          44.
     14,           0.,           0.
     15,   5.04500008,   1.14999998
     16,   5.04500008,    3.6500001
     17,   7.04500008,    3.6500001
     18,   7.04500008,   1.14999998
     19,   5.05000019,   21.1499996
     20,   5.05000019,   23.6499996
** ... 414 like lines cut
*Element, type=DC2D3
  1, 180, 156, 148
  2, 209, 177, 208
  3, 209,  64,  65
  4, 208, 204, 168
  5, 296, 204, 139
  6, 187,  60,  61
  7, 295, 140, 205
  8, 285, 205, 176
  9, 166, 101, 151
 10, 318, 305, 284
 11, 289, 135, 183
 12, 244, 133, 170
 13, 320, 301, 317
 14, 169,  30, 133
 15, 259, 225,  68
 16, 183, 149, 179
 17, 258, 183, 179
 18, 304, 270, 278
 19, 281, 273, 229
 20, 164,  97, 153
** ... 740 like lines cut
*Nset, nset=Concrete-1
   1,   2,   3,   4,   5,   6,   7,   8,   9,  10,  11,  12,  13,  14,  15,  16
  17,  18,  19,  20,  21,  22,  23,  24,  25,  26,  28,  29,  30,  31,  32,  33
  34,  35,  36,  37,  38,  39,  40,  41,  42,  43,  44,  45,  46,  47,  48,  49
  50,  51,  52,  53,  54,  55,  56,  57,  58,  59,  60,  61,  62,  63,  64,  65
  66,  67,  68,  69,  70,  71,  72,  73,  74,  75,  76,  77,  78,  79,  80,  81
  82,  83,  84,  85,  86,  87,  88,  89,  90,  91,  92,  93,  94,  95,  96,  97
  98,  99, 100, 101, 132, 133, 134, 135, 136, 137, 138, 139, 140, 141, 142, 143
 144, 145, 146, 147, 148, 149, 150, 151, 152, 153, 154, 155, 156, 157, 158, 159
 160, 161, 162, 163, 164, 165, 166, 167, 168, 169, 170, 171, 172, 173, 174, 175
 176, 177, 178, 179, 180, 181, 182, 183, 184, 185, 186, 187, 188, 189, 190, 191
 192, 193, 194, 195, 196, 197, 198, 199, 200, 201, 202, 203, 204, 205, 206, 207
 208, 209, 210, 211, 212, 213, 214, 215, 216, 217, 218, 219, 220, 221, 222, 223
 224, 225, 226, 227, 228, 229, 230, 231, 232, 233, 234, 235, 236, 237, 238, 239
 240, 241, 242, 243, 244, 245, 246, 247, 248, 249, 250, 251, 252, 253, 254, 255
 256, 257, 258, 259, 260, 261, 262, 263, 264, 265, 266, 267, 268, 269, 270, 271
 272, 273, 274, 275, 276, 277, 278, 279, 280, 281, 282, 283, 284, 285, 286, 287
 288, 289, 290, 291, 292, 293, 294, 295, 296, 297, 298, 299, 300, 301, 302, 303
 304, 305, 306, 307, 308, 309, 310, 311, 312, 313, 314, 315, 316, 317, 318, 319
 320, 321, 322, 323, 324, 325, 326, 327, 328, 329, 330, 331, 332, 333, 334, 335
 336, 337, 338, 339, 340, 341, 342, 343, 344, 345, 346, 347, 348
*Elset, elset=Concrete-1, generate
   1,  542,    1
*Nset, nset=Concrete-2
   9,  10,  27,  37,  38,  39,  40,  41,  42,  43,  44,  45,  46,  47,  48,  49
  50,  51, 102, 103, 104, 105, 106, 107, 108, 109, 110, 111, 112, 113, 114, 115
 116, 117, 118, 119, 120, 121, 122, 123, 124, 125, 126, 127, 128, 129, 130, 131
 349, 350, 351, 352, 353, 354, 355, 356, 357, 358, 359, 360, 361, 362, 363, 364
 365, 366, 367, 368, 369, 370, 371, 372, 373, 374, 375, 376, 377, 378, 379, 380
 381, 382, 383, 384, 385, 386, 387, 388, 389, 390, 391, 392, 393, 394, 395, 396
 397, 398, 399, 400, 401, 402, 403, 404, 405, 406, 407, 408, 409, 410, 411, 412
 413, 414, 415, 416, 417, 418, 419, 420, 421, 422, 423, 424, 425, 426, 427, 428
 429, 430, 431, 432, 433, 434
*Elset, elset=Concrete-2, generate
 543,  760,    1
*Nset, nset=T_air
  10,  11,  12,  27,  52,  53,  54,  55,  56,  57,  58,  59,  60,  61,  62,  63
 113, 114, 115, 116, 117, 118, 119, 120, 121, 122, 123, 124, 125, 126, 127, 128
 129, 130, 131
*Nset, nset=T_water
 13, 14, 64, 65, 66, 67, 68, 69, 70, 71, 72, 73, 74, 75, 76, 77
 78, 79, 80, 81, 82, 83, 84
*Nset, nset=T_gallery
   1,   2,   3,   4,   5,   6,   7,   8,  15,  16,  17,  18,  19,  20,  21,  22
  23,  24,  25,  26,  28,  29,  30,  31,  32,  33,  34,  35,  36,  90,  91,  92
  93,  94,  95,  96,  97,  98,  99, 100, 101
*Elset, elset=Concrete-1, generate
   1,  542,    1
** Section: Section-1
*Solid Section, elset=Concrete-1, material=Material-2
,
** Section: Section-2
*Solid Section, elset=Concrete-2, material=Material-1
,
*End Part
**  
**
** ASSEMBLY
**
*Assembly, name=Assembly
**  
*Instance, name=Part-1-1, part=Part-1
*Nset, nset=T_air
  10,  11,  12,  27,  52,  53,  54,  55,  56,  57,  58,  59,  60,  61,  62,  63
 113, 114, 115, 116, 117, 118, 119, 120, 121, 122, 123, 124, 125, 126, 127, 128
 129, 130, 131
*Nset, nset=T_water
 13, 14, 64, 65, 66, 67, 68, 69, 70, 71, 72, 73, 74, 75, 76, 77
 78, 79, 80, 81, 82, 83, 84
*End Instance
**  
*End Assembly
** 
** MATERIALS
** 
*Material, name=Material-1
*Conductivity
 1000,
*Density
 950,
*Specific Heat
 1500,
*Material, name=Material-2
*Conductivity
 1500,
*Density
 850,
*Specific Heat
 2500,
** ----------------------------------------------------------------
** 
** STEP: Step-1
** 
*Step, name=Step-1, nlgeom=NO
*Heat Transfer, steady state, deltmx=0.
1., 1., 1e-05, 1., 
** 
** BOUNDARY CONDITIONS
** 
** Name: BC-1 Type: Temperature
*Boundary
T_water, 11, 11, 5.
** Name: BC-2 Type: Temperature
*Boundary
T_air, 11, 11, 20.
** 
** OUTPUT REQUESTS
** 
*Restart, write, frequency=0
** 
** FIELD OUTPUT: F-Output-1
** 
*Output, field, variable=PRESELECT
*Output, history, frequency=0
*End Step
